Info: SIMULATION PARAMETERS:
Info: TIMESTEP               2
Info: NUMBER OF STEPS        0
Info: STEPS PER CYCLE        10
Info: FIRST LDB TIMESTEP     50
Info: LAST LDB TIMESTEP     -1
Info: HOM BACKGROUND SCALING 1
Info: MIN ATOMS PER PATCH    40
Info: INITIAL TEMPERATURE    300
Info: CENTER OF MASS MOVING INITIALLY? NO
Info: DIELECTRIC             1
Info: EXCLUDE                SCALED ONE-FOUR
Info: 1-4 ELECTROSTATICS SCALED BY 1
Info: MODIFIED 1-4 VDW PARAMETERS WILL BE USED
Info: DCD FILENAME           eegbis100ps.dcd
Info: DCD FREQUENCY          5000
Info: DCD FIRST STEP         5000
Info: XST FILENAME           eegbis100ps.xst
Info: XST FREQUENCY          5000
Info: NO VELOCITY DCD OUTPUT
Info: NO FORCE DCD OUTPUT
Info: OUTPUT FILENAME        eegbis100ps
Info: BINARY OUTPUT FILES WILL BE USED
Info: RESTART FILENAME       eegbis100ps.restart
Info: RESTART FREQUENCY      1000
Info: BINARY RESTART FILES WILL BE USED
Info: SWITCHING ACTIVE
Info: SWITCHING ON           13
Info: SWITCHING OFF          14
Info: PAIRLIST DISTANCE      16
Info: PAIRLIST SHRINK RATE   0.01
Info: PAIRLIST GROW RATE     0.01
Info: PAIRLIST TRIGGER       0.3
Info: PAIRLISTS PER CYCLE    2
Info: PAIRLISTS ENABLED
Info: MARGIN                 0
Info: HYDROGEN GROUP CUTOFF  2.5
Info: PATCH DIMENSION        18.5
Info: ENERGY OUTPUT STEPS    1000
Info: CROSSTERM ENERGY INCLUDED IN DIHEDRAL
Info: TIMING OUTPUT STEPS    10000
Info: PRESSURE OUTPUT STEPS  1000
Info: GBIS GENERALIZED BORN IMPLICIT SOLVENT ACTIVE
Info: GBIS SOLVENT DIELECTRIC: 78.5
Info: GBIS PROTEIN DIELECTRIC: 1
Info: GBIS COULOMB RADIUS OFFSET: 0.09 Ang
Info: GBIS ION CONCENTRATION: 0 M
Info: GBIS DEBYE SCREENING LENGTH: inf Ang
Info: GBIS DELTA: 1
Info: GBIS BETA: 0.8
Info: GBIS GAMMA: 4.85
Info: GBIS BORN RADIUS CUTOFF: 12 Ang
Info: GBIS MAX BORN RADIUS: 30 Ang
Info: LANGEVIN DYNAMICS ACTIVE
Info: LANGEVIN TEMPERATURE   300
Info: LANGEVIN DAMPING COEFFICIENT IS 1 INVERSE PS
Info: LANGEVIN DYNAMICS NOT APPLIED TO HYDROGENS
Info: USING VERLET I (r-RESPA) MTS SCHEME.
Info: C1 SPLITTING OF LONG RANGE ELECTROSTATICS
Info: PLACING ATOMS IN PATCHES BY HYDROGEN GROUPS
Info: RIGID BONDS TO HYDROGEN : ALL
Info:         ERROR TOLERANCE : 1e-08
Info:          MAX ITERATIONS : 100
Info: RIGID WATER USING SETTLE ALGORITHM
Info: RANDOM NUMBER SEED     1345690339
Info: USE HYDROGEN BONDS?    NO
Info: COORDINATE PDB         nm.pdb
Info: STRUCTURE FILE         nm.psf
Info: PARAMETER file: CHARMM format!
Info: PARAMETERS             ../../reso/toppar/par_all27_prot_lipid.prm
Info: USING ARITHMETIC MEAN TO COMBINE L-J SIGMA PARAMETERS
Info: SUMMARY OF PARAMETERS:
Info: 180 BONDS
Info: 447 ANGLES
Info: 566 DIHEDRAL
Info: 46 IMPROPER
Info: 6 CROSSTERM
Info: 114 VDW
Info: 0 VDW_PAIRS
Info: 0 NBTHOLE_PAIRS
Info: STRUCTURE SUMMARY:
Info: 603 ATOMS
Info: 611 BONDS
Info: 1092 ANGLES
Info: 1611 DIHEDRALS
Info: 97 IMPROPERS
Info: 35 CROSSTERMS
Info: 0 EXCLUSIONS
Info: 291 RIGID BONDS
Info: 1518 DEGREES OF FREEDOM
Info: 312 HYDROGEN GROUPS
Info: 4 ATOMS IN LARGEST HYDROGEN GROUP
Info: 312 MIGRATION GROUPS
Info: 4 ATOMS IN LARGEST MIGRATION GROUP
Info: TOTAL MASS = 4399.78 amu
Info: TOTAL CHARGE = -1 e
Info: REMOVING COM VELOCITY 0.361374 0.279095 0.0181527
Info: NONBONDED TABLE R-SQUARED SPACING: 0.0625
Info: NONBONDED TABLE SIZE: 769 POINTS
TCL: Minimizing for 1000 steps
ETITLE: TS BOND ANGLE DIHED IMPRP ELECT VDW BOUNDARY MISC KINETIC TOTAL TEMP POTENTIAL TOTAL3 TEMPAVG
ENERGY: 0 241.5450 156.6948 203.3875 0.1812 -1302.6466 388.4096 0.0000 0.0000 0.0000 -312.4286 0.0000 -312.4286 -312.4286 0.0000
ENERGY: 200 37.5910 91.7759 151.2940 2.1487 -1386.6689 -104.8391 0.0000 0.0000 0.0000 -1208.6985 0.0000 -1208.6985 -1208.6985 0.0000
ENERGY: 400 38.3920 90.9220 131.9128 2.0011 -1400.0650 -120.4646 0.0000 0.0000 0.0000 -1257.3017 0.0000 -1257.3017 -1257.3017 0.0000
ENERGY: 600 37.7770 92.0108 120.1437 2.1335 -1401.8846 -129.4879 0.0000 0.0000 0.0000 -1279.3074 0.0000 -1279.3074 -1279.3074 0.0000
ENERGY: 800 38.5009 92.1776 117.8813 2.2918 -1405.0613 -131.2089 0.0000 0.0000 0.0000 -1285.4185 0.0000 -1285.4185 -1285.4185 0.0000
ENERGY: 1000 38.3844 91.3192 114.8813 2.3805 -1405.4150 -132.2005 0.0000 0.0000 0.0000 -1290.6500 0.0000 -1290.6500 -1290.6500 0.0000
TCL: Running for 49000 steps
ETITLE: TS BOND ANGLE DIHED IMPRP ELECT VDW BOUNDARY MISC KINETIC TOTAL TEMP POTENTIAL TOTAL3 TEMPAVG
ENERGY: 1000 37.3005 91.3993 114.8689 2.3784 -1403.2594 -132.0492 0.0000 0.0000 464.0514 -825.3102 307.6697 -1289.3616 -825.5287 307.6697
ENERGY: 11000 122.5074 309.3013 183.5111 20.7007 -1403.4074 -66.4341 0.0000 0.0000 467.1494 -366.6716 309.7237 -833.8210 -360.8260 304.7164
ENERGY: 21000 119.0737 331.3610 162.3215 14.7462 -1407.7555 -73.5606 0.0000 0.0000 455.6486 -398.1652 302.0985 -853.8137 -392.9145 299.2210
ENERGY: 30000 126.3010 315.7665 153.2877 17.7915 -1416.7170 -85.0203 0.0000 0.0000 442.5888 -446.0018 293.4398 -888.5906 -440.4262 294.2370
ENERGY: 40000 124.6800 337.8502 167.1736 21.0670 -1413.1039 -76.9238 0.0000 0.0000 430.2723 -408.9847 285.2739 -839.2569 -402.6663 290.4375
ENERGY: 50000 118.6822 308.2519 174.6250 18.0110 -1418.4985 -76.2380 0.0000 0.0000 458.4636 -416.7029 303.9649 -875.1665 -410.3383 295.8055
