Info: SIMULATION PARAMETERS:
Info: TIMESTEP               2
Info: NUMBER OF STEPS        0
Info: STEPS PER CYCLE        10
Info: FIRST LDB TIMESTEP     50
Info: LAST LDB TIMESTEP     -1
Info: HOM BACKGROUND SCALING 1
Info: MIN ATOMS PER PATCH    40
Info: INITIAL TEMPERATURE    300
Info: CENTER OF MASS MOVING INITIALLY? NO
Info: DIELECTRIC             1
Info: EXCLUDE                SCALED ONE-FOUR
Info: 1-4 ELECTROSTATICS SCALED BY 1
Info: MODIFIED 1-4 VDW PARAMETERS WILL BE USED
Info: DCD FILENAME           eevac100ps.dcd
Info: DCD FREQUENCY          2000
Info: DCD FIRST STEP         2000
Info: XST FILENAME           eevac100ps.xst
Info: XST FREQUENCY          2000
Info: NO VELOCITY DCD OUTPUT
Info: NO FORCE DCD OUTPUT
Info: OUTPUT FILENAME        eevac100ps
Info: BINARY OUTPUT FILES WILL BE USED
Info: RESTART FILENAME       eevac100ps.restart
Info: RESTART FREQUENCY      1000
Info: BINARY RESTART FILES WILL BE USED
Info: SWITCHING ACTIVE
Info: SWITCHING ON           10
Info: SWITCHING OFF          12
Info: PAIRLIST DISTANCE      13.5
Info: PAIRLIST SHRINK RATE   0.01
Info: PAIRLIST GROW RATE     0.01
Info: PAIRLIST TRIGGER       0.3
Info: PAIRLISTS PER CYCLE    2
Info: PAIRLISTS ENABLED
Info: MARGIN                 0
Info: HYDROGEN GROUP CUTOFF  2.5
Info: PATCH DIMENSION        16
Info: ENERGY OUTPUT STEPS    1000
Info: CROSSTERM ENERGY INCLUDED IN DIHEDRAL
Info: TIMING OUTPUT STEPS    10000
Info: LANGEVIN DYNAMICS ACTIVE
Info: LANGEVIN TEMPERATURE   300
Info: LANGEVIN DAMPING COEFFICIENT IS 1 INVERSE PS
Info: LANGEVIN DYNAMICS NOT APPLIED TO HYDROGENS
Info: USING VERLET I (r-RESPA) MTS SCHEME.
Info: C1 SPLITTING OF LONG RANGE ELECTROSTATICS
Info: PLACING ATOMS IN PATCHES BY HYDROGEN GROUPS
Info: RIGID BONDS TO HYDROGEN : ALL
Info:         ERROR TOLERANCE : 1e-08
Info:          MAX ITERATIONS : 100
Info: RIGID WATER USING SETTLE ALGORITHM
Info: RANDOM NUMBER SEED     1345690306
Info: USE HYDROGEN BONDS?    NO
Info: COORDINATE PDB         nm.pdb
Info: STRUCTURE FILE         nm.psf
Info: PARAMETER file: CHARMM format!
Info: PARAMETERS             ../../reso/toppar/par_all27_prot_lipid.prm
Info: USING ARITHMETIC MEAN TO COMBINE L-J SIGMA PARAMETERS
Info: SUMMARY OF PARAMETERS:
Info: 180 BONDS
Info: 447 ANGLES
Info: 566 DIHEDRAL
Info: 46 IMPROPER
Info: 6 CROSSTERM
Info: 114 VDW
Info: 0 VDW_PAIRS
Info: 0 NBTHOLE_PAIRS
Info: STRUCTURE SUMMARY:
Info: 603 ATOMS
Info: 611 BONDS
Info: 1092 ANGLES
Info: 1611 DIHEDRALS
Info: 97 IMPROPERS
Info: 35 CROSSTERMS
Info: 0 EXCLUSIONS
Info: 291 RIGID BONDS
Info: 1518 DEGREES OF FREEDOM
Info: 312 HYDROGEN GROUPS
Info: 4 ATOMS IN LARGEST HYDROGEN GROUP
Info: 312 MIGRATION GROUPS
Info: 4 ATOMS IN LARGEST MIGRATION GROUP
Info: TOTAL MASS = 4399.78 amu
Info: TOTAL CHARGE = -1 e
Info: REMOVING COM VELOCITY 0.113192 0.288878 -0.361908
Info: NONBONDED TABLE R-SQUARED SPACING: 0.0625
Info: NONBONDED TABLE SIZE: 769 POINTS
TCL: Minimizing for 1000 steps
ETITLE: TS BOND ANGLE DIHED IMPRP ELECT VDW BOUNDARY MISC KINETIC TOTAL TEMP POTENTIAL TOTAL3 TEMPAVG
ENERGY: 0 241.5450 156.6948 203.3875 0.1812 -345.4640 390.5127 0.0000 0.0000 0.0000 646.8571 0.0000 646.8571 646.8571 0.0000
ENERGY: 200 36.9066 112.0644 182.8340 7.4067 -678.9148 -63.0436 0.0000 0.0000 0.0000 -402.7467 0.0000 -402.7467 -402.7467 0.0000
ENERGY: 400 35.4984 116.4186 166.0599 6.2517 -863.8785 -58.3869 0.0000 0.0000 0.0000 -598.0368 0.0000 -598.0368 -598.0368 0.0000
ENERGY: 600 36.1982 117.1398 164.1524 5.8829 -969.8470 -56.0816 0.0000 0.0000 0.0000 -702.5553 0.0000 -702.5553 -702.5553 0.0000
ENERGY: 800 37.7724 119.9687 155.3080 5.6447 -1003.5736 -59.1699 0.0000 0.0000 0.0000 -744.0497 0.0000 -744.0497 -744.0497 0.0000
ENERGY: 1000 35.8950 113.8288 158.1865 6.0641 -1015.8183 -58.5377 0.0000 0.0000 0.0000 -760.3816 0.0000 -760.3816 -760.3816 0.0000
TCL: Running for 49000 steps
ETITLE: TS BOND ANGLE DIHED IMPRP ELECT VDW BOUNDARY MISC KINETIC TOTAL TEMP POTENTIAL TOTAL3 TEMPAVG
ENERGY: 1000 31.6797 113.8380 158.1754 6.0489 -1007.5783 -58.2569 0.0000 0.0000 0.0000 -756.0933 0.0000 -756.0933 -756.1084 0.0000
ENERGY: 11000 122.4367 372.5379 208.5387 23.2997 -1179.8731 -53.6249 0.0000 0.0000 435.6090 -71.0760 288.8122 -506.6851 -67.5651 292.6323
ENERGY: 21000 120.8696 363.1196 196.5228 29.2466 -1173.1461 -37.8802 0.0000 0.0000 430.7112 -70.5566 285.5648 -501.2677 -65.9482 290.7433
ENERGY: 30000 125.5828 365.6237 221.3190 22.7439 -1181.0716 -38.8916 0.0000 0.0000 456.7181 -27.9757 302.8076 -484.6938 -22.3670 305.0715
ENERGY: 40000 123.9267 340.8379 193.1883 21.8015 -1182.2473 -27.4967 0.0000 0.0000 453.2736 -76.7160 300.5239 -529.9896 -71.3941 299.2697
ENERGY: 50000 121.3221 306.1579 218.9785 33.5846 -1188.3437 -49.5406 0.0000 0.0000 461.8327 -96.0085 306.1986 -557.8412 -89.2896 291.9116
